Version 4
SHEET 1 2280 680
WIRE 592 -624 496 -624
WIRE 752 -608 704 -608
WIRE 880 -608 832 -608
WIRE 592 -592 592 -624
WIRE 128 -528 32 -528
WIRE 128 -512 128 -528
WIRE 704 -512 704 -608
WIRE 752 -512 704 -512
WIRE 880 -496 880 -608
WIRE 880 -496 816 -496
WIRE 960 -496 880 -496
WIRE 592 -480 592 -512
WIRE 752 -480 592 -480
WIRE 960 -480 960 -496
WIRE 1008 -480 960 -480
WIRE 240 -464 192 -464
WIRE 368 -464 320 -464
WIRE 592 -448 592 -480
WIRE 192 -400 192 -464
WIRE 240 -400 192 -400
WIRE 368 -384 368 -464
WIRE 368 -384 304 -384
WIRE 448 -384 368 -384
WIRE 2208 -384 2144 -384
WIRE 128 -368 128 -432
WIRE 240 -368 128 -368
WIRE 448 -368 448 -384
WIRE 592 -336 592 -368
WIRE 592 -336 496 -336
WIRE 672 -336 592 -336
WIRE 1504 -320 1440 -320
WIRE 128 -256 128 -288
WIRE 128 -256 32 -256
WIRE 224 -256 128 -256
WIRE 976 -224 944 -224
WIRE 1104 -224 1056 -224
WIRE 672 -208 592 -208
WIRE 832 -208 784 -208
WIRE 928 -208 912 -208
WIRE 1248 -208 1232 -208
WIRE 1408 -208 1328 -208
WIRE 656 -144 656 -160
WIRE 928 -144 928 -208
WIRE 944 -144 944 -224
WIRE 944 -144 928 -144
WIRE 960 -144 944 -144
WIRE 464 -128 464 -176
WIRE 496 -128 464 -128
WIRE 592 -128 592 -208
WIRE 592 -128 576 -128
WIRE 624 -128 592 -128
WIRE 1104 -128 1104 -224
WIRE 1104 -128 1024 -128
WIRE 1136 -128 1104 -128
WIRE 1232 -128 1232 -208
WIRE 1232 -128 1216 -128
WIRE 1264 -128 1232 -128
WIRE 752 -112 752 -208
WIRE 752 -112 688 -112
WIRE 784 -112 784 -208
WIRE 784 -112 752 -112
WIRE 928 -112 912 -112
WIRE 960 -112 928 -112
WIRE 1408 -112 1408 -208
WIRE 1408 -112 1328 -112
WIRE 1440 -112 1440 -320
WIRE 1440 -112 1408 -112
WIRE 1488 -112 1440 -112
WIRE 624 -96 336 -96
WIRE 1264 -96 1184 -96
WIRE 336 -64 336 -96
WIRE 1488 -64 1488 -112
WIRE 656 -48 656 -80
WIRE 832 -48 832 -112
WIRE 928 -48 928 -112
WIRE 1184 -48 1184 -96
WIRE 1952 -32 1888 -32
WIRE 2096 -32 2032 -32
WIRE 336 -16 336 -64
WIRE 1712 0 1664 0
WIRE 1808 0 1792 0
WIRE -64 32 -64 0
WIRE 16 32 -64 32
WIRE 1488 48 1488 16
WIRE 1520 48 1488 48
WIRE 1808 48 1808 0
WIRE 1888 48 1888 -32
WIRE 1888 48 1808 48
WIRE 1936 48 1888 48
WIRE -64 64 -64 32
WIRE 2096 64 2096 -32
WIRE 2096 64 2000 64
WIRE 2144 64 2144 -384
WIRE 2144 64 2096 64
WIRE 2176 64 2144 64
WIRE 1904 80 1840 80
WIRE 1936 80 1904 80
WIRE 1488 96 1488 48
WIRE 1840 96 1840 80
WIRE 336 128 336 64
WIRE 1600 128 1552 128
WIRE 1728 128 1680 128
WIRE 1904 144 1904 80
WIRE 1488 208 1488 176
WIRE 1552 224 1552 128
WIRE 1600 224 1552 224
WIRE 1728 240 1728 128
WIRE 1728 240 1664 240
WIRE 1904 240 1904 224
WIRE 1904 240 1728 240
WIRE 1520 256 1520 48
WIRE 1600 256 1520 256
FLAG 16 32 0
FLAG -64 -80 V+
FLAG -64 144 V-
FLAG 336 128 0
FLAG 656 -160 V+
FLAG 656 -48 V-
FLAG 464 -176 0
FLAG 32 -256 0
FLAG 32 -528 V+
FLAG 928 32 0
FLAG 992 -96 V-
FLAG 832 -48 500mV
FLAG 1184 -48 0
FLAG 1296 -144 V+
FLAG 1296 -80 V-
FLAG 1504 -320 0-10V
FLAG 496 -624 V+
FLAG 1008 -480 1V
FLAG 496 -336 0
FLAG 1488 208 0
FLAG 1968 32 V+
FLAG 1968 96 V-
FLAG 992 -160 V+
FLAG 784 -528 V+
FLAG 784 -464 V-
FLAG 1632 208 V+
FLAG 1632 272 V-
FLAG 1840 176 1V
FLAG 1664 0 0
FLAG 2208 -384 1-5V
FLAG 272 -416 V+
FLAG 272 -352 V-
FLAG 448 -368 500mV
FLAG 336 -64 Vin
SYMBOL voltage -64 -96 R0
WINDOW 123 0 0 Left 2
WINDOW 39 0 0 Left 2
SYMATTR InstName V1
SYMATTR Value 12V
SYMBOL voltage -64 48 R0
WINDOW 123 0 0 Left 2
WINDOW 39 0 0 Left 2
SYMATTR InstName V2
SYMATTR Value 12V
SYMBOL voltage 336 -32 R0
WINDOW 123 0 0 Left 2
WINDOW 39 0 0 Left 2
SYMATTR InstName V3
SYMATTR Value PULSE(0.1 2 0 1 1 0)
SYMBOL Opamps\\OP07 656 -176 R0
SYMATTR InstName U1
SYMBOL res 592 -144 R90
WINDOW 0 0 56 VBottom 2
WINDOW 3 32 56 VTop 2
SYMATTR InstName R1
SYMATTR Value 3k
SYMBOL res 768 -224 R90
WINDOW 0 0 56 VBottom 2
WINDOW 3 32 56 VTop 2
SYMATTR InstName R2
SYMATTR Value 12k
SYMBOL Opamps\\OP07 992 -192 R0
SYMATTR InstName U2
SYMBOL res 112 -528 R0
SYMATTR InstName R3
SYMATTR Value 62k
SYMBOL res 112 -384 R0
SYMATTR InstName R4
SYMATTR Value 2k7
SYMBOL res 912 -64 R0
SYMATTR InstName R6
SYMATTR Value 5k6
SYMBOL res 928 -224 R90
WINDOW 0 0 56 VBottom 2
WINDOW 3 32 56 VTop 2
SYMATTR InstName R7
SYMATTR Value 5k6
SYMBOL res 1072 -240 R90
WINDOW 0 0 56 VBottom 2
WINDOW 3 32 56 VTop 2
SYMATTR InstName R8
SYMATTR Value 5k6
SYMBOL Opamps\\OP07 1296 -176 R0
SYMATTR InstName U3
SYMBOL res 1232 -144 R90
WINDOW 0 0 56 VBottom 2
WINDOW 3 32 56 VTop 2
SYMATTR InstName R5
SYMATTR Value 15k
SYMBOL res 1344 -224 R90
WINDOW 0 0 56 VBottom 2
WINDOW 3 32 56 VTop 2
SYMATTR InstName R9
SYMATTR Value 16k
SYMBOL res 608 -496 R180
WINDOW 0 36 76 Left 2
WINDOW 3 36 40 Left 2
SYMATTR InstName R12
SYMATTR Value 11k
SYMBOL res 608 -352 R180
WINDOW 0 36 76 Left 2
WINDOW 3 36 40 Left 2
SYMATTR InstName R13
SYMATTR Value 1k
SYMBOL res 1472 -80 R0
SYMATTR InstName R10
SYMATTR Value 15k
SYMBOL res 1472 80 R0
WINDOW 3 39 73 Left 2
SYMATTR Value 10k
SYMATTR InstName R11
SYMBOL Opamps\\OP07 1968 0 R0
SYMATTR InstName U4
SYMBOL res 2048 -48 R90
WINDOW 0 0 56 VBottom 2
WINDOW 3 32 56 VTop 2
SYMATTR InstName R16
SYMATTR Value 5k6
SYMBOL Opamps\\OP07 784 -560 R0
SYMATTR InstName U5
SYMBOL res 848 -624 R90
WINDOW 0 0 56 VBottom 2
WINDOW 3 32 56 VTop 2
SYMATTR InstName R17
SYMATTR Value 1Meg
SYMBOL Opamps\\OP07 1632 176 R0
SYMATTR InstName U6
SYMBOL res 1696 112 R90
WINDOW 0 0 56 VBottom 2
WINDOW 3 32 56 VTop 2
SYMATTR InstName R18
SYMATTR Value 1Meg
SYMBOL res 1888 128 R0
SYMATTR InstName R14
SYMATTR Value 5k6
SYMBOL res 1824 80 R0
SYMATTR InstName R15
SYMATTR Value 5k6
SYMBOL res 1808 -16 R90
WINDOW 0 0 56 VBottom 2
WINDOW 3 32 56 VTop 2
SYMATTR InstName R19
SYMATTR Value 5k6
SYMBOL Opamps\\OP07 272 -448 R0
SYMATTR InstName U7
SYMBOL res 336 -480 R90
WINDOW 0 0 56 VBottom 2
WINDOW 3 32 56 VTop 2
SYMATTR InstName R20
SYMATTR Value 1Meg
SYMBOL res 928 -128 R90
WINDOW 0 0 56 VBottom 2
WINDOW 3 32 56 VTop 2
SYMATTR InstName R21
SYMATTR Value 5k6
TEXT -96 216 Left 2 !.tran 0 2 0 .1
